12

C	-0.2124720	-1.3682740	-0.0000180
C	1.0787480	-0.8681790	-0.0000390
C	1.2912440	0.5001230	0.0000620
C	0.2124670	1.3683060	-0.0000230
C	-1.0787700	0.8681640	-0.0000440
C	-1.2912140	-0.5001320	0.0000710
H	-0.3772560	-2.4289470	-0.0000550
H	1.9149100	-1.5411620	-0.0002460
H	2.2921470	0.8878720	0.0002560
H	0.3772360	2.4289780	-0.0000090
H	-1.9149510	1.5411200	-0.0002580
H	-2.2921060	-0.8879060	0.0002550